
**** 06/18/10 10:20:53 ******* PSpice 16.2.0 (Oct 2008) ******* ID# 0 ********

 ** Profile: "SCHEMATIC1-sim"  [ S:\BATTERY RESEARCH\schematics\non_diff_sim-PSpiceFiles\SCHEMATIC1\sim.sim ] 


 ****     CIRCUIT DESCRIPTION


******************************************************************************




** Creating circuit file "sim.cir" 
** WARNING: THIS AUTOMATICALLY GENERATED FILE MAY BE OVERWRITTEN BY SUBSEQUENT SIMULATIONS

*Libraries: 
* Profile Libraries :
* Local Libraries :
* From [PSPICE NETLIST] section of C:\Software\Cadence\SPB_16.2\tools\PSpice\PSpice.ini file:
.lib "nom.lib" 

*Analysis directives: 
.TRAN  0 1000ns 0 
.PROBE V(alias(*)) I(alias(*)) W(alias(*)) D(alias(*)) NOISE(alias(*)) 
.INC "..\SCHEMATIC1.net" 



**** INCLUDING SCHEMATIC1.net ****
* source NON_DIFF_SIM
V_charge_ref         N61117 0 0Vdc
V_V2         N68433 0 20Vdc
R_R7         N65310 N65908 10k
V_load_vef         N69834 0 0.05Vdc
R_R4         N61101 0 0.05
V_V5         N59430 N65908 4.2Vdc
V_V1         N59430 0 6Vdc
R_10k         N65310 N69834 10k
R_R3         N59694 N65908 0.05
R_R5         N65599 N65500 10k
R_R8         N59430 N65908 4.2
R_R6         0 N65599 10k

**** RESUMING sim.cir ****
.END

ERROR -- Less than 2 connections at node N61101
ERROR -- Less than 2 connections at node N59694
ERROR -- Less than 2 connections at node N65500