
**** 08/12/10 18:54:54 ******* PSpice 16.2.0 (Oct 2008) ******* ID# 0 ********

 ** Profile: "SCHEMATIC1-sim"  [ S:\BATTERY RESEARCH\schematics\hybrid battery-PSpiceFiles\SCHEMATIC1\sim.sim ] 


 ****     CIRCUIT DESCRIPTION


******************************************************************************




** Creating circuit file "sim.cir" 
** WARNING: THIS AUTOMATICALLY GENERATED FILE MAY BE OVERWRITTEN BY SUBSEQUENT SIMULATIONS

*Libraries: 
* Profile Libraries :
* Local Libraries :
* From [PSPICE NETLIST] section of C:\Software\Cadence\SPB_16.2\tools\PSpice\PSpice.ini file:
.lib "nom.lib" 

*Analysis directives: 
.AC DEC 10 1000 200000
.PROBE V(alias(*)) I(alias(*)) W(alias(*)) D(alias(*)) NOISE(alias(*)) 
.INC "..\SCHEMATIC1.net" 



**** INCLUDING SCHEMATIC1.net ****
* source HYBRID BATTERY
R_R1         N00579 0 10K
R_R2         N00562 N00579 10K
V_V2         N00562 0 DC 0Vdc AC 1Vac 
C_C2         N00562 N00579  3.3n  TC=0,0 

**** RESUMING sim.cir ****
.END

**** 08/12/10 18:54:54 ******* PSpice 16.2.0 (Oct 2008) ******* ID# 0 ********

 ** Profile: "SCHEMATIC1-sim"  [ S:\BATTERY RESEARCH\schematics\hybrid battery-PSpiceFiles\SCHEMATIC1\sim.sim ] 


 ****     SMALL SIGNAL BIAS SOLUTION       TEMPERATURE =   27.000 DEG C


******************************************************************************



 NODE   VOLTAGE     NODE   VOLTAGE     NODE   VOLTAGE     NODE   VOLTAGE


(N00562)    0.0000 (N00579)    0.0000 




    VOLTAGE SOURCE CURRENTS
    NAME         CURRENT

    V_V2         0.000E+00

    TOTAL POWER DISSIPATION   0.00E+00  WATTS



          JOB CONCLUDED

**** 08/12/10 18:54:54 ******* PSpice 16.2.0 (Oct 2008) ******* ID# 0 ********

 ** Profile: "SCHEMATIC1-sim"  [ S:\BATTERY RESEARCH\schematics\hybrid battery-PSpiceFiles\SCHEMATIC1\sim.sim ] 


 ****     JOB STATISTICS SUMMARY


******************************************************************************



  Total job time (using Solver 1)   =         .05
